176
Energy =
H    -2.1830612   -1.6994959   -1.6916884 
C    -3.1856985   -1.4532695   -1.3720485 
C    -3.9897898   -0.6393744   -2.1450012 
C    -5.2591735   -0.2735031   -1.7046932 
C    -5.7647077   -0.8664252   -0.5549119 
C    -4.9648037   -1.6783590    0.2305375 
C    -3.6501407   -1.9106266   -0.1418703 
O    -2.8078288   -2.5755152    0.7317785 
C    -1.6655662   -1.9188742    1.0806503 
C    -1.4936013   -0.5558659    0.8466305 
C    -0.2998408    0.0599725    1.1505675 
C     0.6960705   -0.6552751    1.7929736 
C     0.5280952   -2.0034264    2.0848816 
C    -0.6485460   -2.6587411    1.6955269 
O    -0.7591439   -4.0128276    1.9160438 
C    -0.8259844   -4.7944382    0.7153954 
H    -1.3204346   -4.2099560   -0.0723808 
C     0.6067205   -5.1168519    0.2435792 
H     1.2212314   -4.2181741    0.3927740 
O     0.5299407   -5.4031500   -1.1416958 
C     1.6261950   -4.9266216   -1.9168497 
C     1.2818869   -5.0657339   -3.3983322 
H     0.8794176   -6.0595522   -3.5824041 
H     2.2111266   -4.9494433   -3.9569618 
C     0.2870371   -4.0099007   -3.9101495 
N     0.3071455   -4.0801379   -5.3637296 
H    -0.3863905   -3.4475824   -5.7493463 
H     1.2146824   -3.7781369   -5.7025918 
C    -1.1407634   -4.3293070   -3.4629886 
H    -1.1889634   -4.5361549   -2.3998378 
H    -1.4733541   -5.2138498   -3.9990439 
H    -1.8140855   -3.5081052   -3.7038725 
C     0.7335158   -2.6027999   -3.4087023 
O     1.8361794   -2.1978525   -4.1804013 
H     2.0195741   -1.2652478   -3.9971001 
H    -0.1024518   -1.8956529   -3.5596969 
C     1.0450526   -2.6265452   -1.8998127 
C     1.6525162   -1.3241818   -1.3967977 
H     2.6414839   -1.2065813   -1.8300236 
H     1.7611300   -1.3710649   -0.3175135 
H     1.0210633   -0.4787070   -1.6527160 
H     0.0984720   -2.8218283   -1.3697299 
O     1.9919594   -3.6336177   -1.5675998 
H     2.5173362   -5.5312108   -1.6806609 
C     1.2306030   -6.2519343    1.0699788 
H     2.1127333   -6.6315679    0.5349589 
O     1.6898686   -5.7842656    2.3100279 
H     1.1425228   -5.0423646    2.6045713 
C     0.2417447   -7.4336889    1.1853396 
O     0.1604029   -8.1049039   -0.0463528 
H    -0.1007680   -7.4621259   -0.7215985 
H     0.6413558   -8.1571713    1.9031769 
C    -1.1517918   -6.9871840    1.6525206 
C    -1.2599341   -6.7001817    3.1601186 
O    -2.5503045   -6.2605088    3.4874758 
H    -2.7689432   -5.5460279    2.8737579 
H    -1.0886460   -7.6239778    3.7163579 
H    -0.5150994   -5.9572773    3.4694651 
O    -1.6436538   -5.8846826    0.8835853 
H    -1.8642718   -7.7836410    1.4055093 
O     1.4945144   -2.7527506    2.6860610 
C     2.6457404   -2.0343716    2.9907287 
C     2.6879420   -1.2616643    4.1437495 
C     3.7370651   -0.3822077    4.3307894 
C     4.7458809   -0.2626914    3.3782391 
C     4.7434759   -1.1209585    2.2836041 
C     3.6954796   -2.0027829    2.0843587 
H     3.6635529   -2.6336003    1.2091960 
H     5.5350258   -1.0731071    1.5525973 
C     5.7779321    0.8404332    3.5368620 
O     7.0979955    0.4154641    3.3956956 
H     7.2298026    0.1487259    2.4709876 
H     5.7070436    1.2247147    4.5623053 
C     5.4584004    2.0279547    2.5737473 
N     4.0352504    2.3217700    2.5404888 
C     3.5712035    3.5551560    2.2714242 
O     4.2852580    4.5389919    2.2244144 
C     2.0969280    3.6614519    1.8557387 
C     2.1698962    3.5989543    0.3429310 
C     2.9358026    2.6393102   -0.3119149 
C     3.2149786    2.7253033   -1.6672708 
C     2.6564087    3.7713955   -2.4158583 
C     1.8394523    4.6996133   -1.7733340 
C     1.6169752    4.6259121   -0.4133569 
H     1.0200694    5.3857418    0.0704130 
H     1.4326487    5.5057030   -2.3645861 
O     2.8898453    3.9390700   -3.7288942 
H     3.6018473    3.3560260   -4.0305884 
C     4.1421098    1.7388838   -2.2738797 
C     5.4965153    1.7403789   -1.9228151 
C     6.3559976    0.7909514   -2.4443995 
C     5.8876955   -0.1732722   -3.3321742 
C     4.5561028   -0.1597911   -3.7182574 
C     3.6823742    0.7843134   -3.1926033 
O     2.3945423    0.7300079   -3.6137180 
H     1.8022300    1.2799308   -3.0714892 
H     4.1978710   -0.8951912   -4.4193348 
O     6.6939484   -1.1219420   -3.8533822 
H     7.5843671   -1.0427681   -3.4893088 
H     7.3973211    0.7951378   -2.1574168 
C     6.0815593    2.8611673   -1.0787863 
N     5.7190199    2.8409284    0.3249511 
C     5.9749630    1.7992273    1.1306418 
O     6.5404739    0.7874732    0.7617810 
H     5.3785075    3.7120737    0.7144665 
C     5.6991130    4.1896391   -1.7182929 
O     5.6553325    4.3618703   -2.9060682 
O     5.4521761    5.1509176   -0.8305648 
H     5.2375094    5.9873814   -1.2730770 
H     7.1776958    2.7865574   -1.1615872 
H     3.3455196    1.7985354    0.2270910 
N     1.2136085    2.7308245    2.5562277 
C     0.0029819    2.2491613    2.1289881 
O    -0.9643199    2.2556082    2.8543572 
C    -0.0165338    1.5076466    0.7908919 
N    -0.9821805    2.0688613   -0.1252375 
C    -0.7323733    2.1252028   -1.4386602 
O     0.3043486    1.7220403   -1.9435457 
C    -1.8253863    2.7582857   -2.3007574 
N    -3.1356077    2.2173229   -1.9991777 
C    -4.2612742    2.6888516   -2.5886107 
O    -4.2407789    3.4658819   -3.5183399 
C    -5.5544238    2.2216821   -1.9314558 
N    -5.3723371    2.3060617   -0.4892864 
C    -6.3127601    2.0751515    0.4505918 
O    -7.4135360    1.6111107    0.2090690 
C    -5.8379734    2.4053282    1.8724459 
N    -5.4692815    3.7964140    2.0517656 
C    -6.5116575    4.7379283    1.7041067 
H    -7.4001621    4.5083381    2.2920127 
H    -6.1762612    5.7416435    1.9629606 
H    -6.7964689    4.7254457    0.6409940 
H    -4.6091546    4.0079550    1.5547112 
C    -4.6679501    1.4726770    2.2275991 
H    -3.7327287    1.9244651    1.8898634 
H    -4.8069528    0.5281565    1.6949135 
C    -4.5367799    1.1714429    3.7241688 
C    -4.1332706    2.4200190    4.5005150 
H    -4.8298527    3.2302257    4.3093527 
H    -4.1133997    2.2118208    5.5676440 
H    -3.1398129    2.7330586    4.1899078 
C    -3.4953470    0.0725671    3.9309385 
H    -2.5235442    0.4137896    3.5814273 
H    -3.4130055   -0.1754375    4.9860869 
H    -3.7620802   -0.8317955    3.3881276 
H    -5.5052388    0.8145429    4.0915426 
H    -6.6887105    2.2024507    2.5342937 
H    -4.5525996    2.8166994   -0.1833300 
H    -6.3457027    2.9138198   -2.2566418 
C    -6.0234525    0.8078763   -2.4388641 
O    -7.4046991    0.6945690   -2.3550845 
H    -7.6762524    0.9431626   -1.4453526 
H    -5.7841556    0.7615595   -3.5094035 
H    -3.2121844    1.4957154   -1.2996691 
C    -1.8188967    4.2932819   -2.1344277 
C    -2.5377918    4.7761849   -0.8918116 
O    -2.9460994    4.0429992   -0.0014621 
N    -2.7021990    6.1042375   -0.8308120 
H    -3.2066951    6.5016479   -0.0537194 
H    -2.4339420    6.7088779   -1.5872199 
H    -0.7862736    4.6468212   -2.1209213 
H    -2.3263488    4.7256403   -2.9996129 
H    -1.5691707    2.5421594   -3.3469129 
H    -1.8046570    2.5315624    0.2551877 
H     0.9576597    1.5486049    0.2988148 
H     1.1455949    3.0018693    3.5348493 
H     1.7861528    4.6858650    2.1114247 
H     3.3966570    1.5401878    2.5857989 
H     5.9668996    2.9258868    2.9469870 
H     3.7566679    0.2411945    5.2125526 
H     1.8782998   -1.3231123    4.8543343 
H     1.6205671   -0.1592962    2.0405440 
H    -2.2984145    0.0110285    0.4112436 
H    -5.3374900   -2.1022573    1.1496323 
H    -6.7780766   -0.6671216   -0.2452588 
H    -3.6218732   -0.2688651   -3.0906805 
